Examples/ADiakoptics/ckt24/Torn_Circuit/Master_Interconnected.dss
Clear
New Circuit.ckt24


Redirect Vsource.dss
Redirect WireData.DSS
Redirect LineGeometry.DSS
Redirect LineCode.DSS
Redirect LoadShape.DSS
Redirect GrowthShape.DSS
Redirect TCC_Curve.DSS
Redirect Spectrum.DSS
Redirect Line.DSS
Redirect Load.DSS
Redirect Transformer.DSS
Redirect RegControl.DSS
Redirect Capacitor.DSS
GIScoords GIScoords.dss
Redirect zone_2\Branches.dss
Redirect zone_2\Transformers.dss
Redirect zone_2\Loads.dss
Redirect zone_2\Capacitors.dss
Redirect Monitor.DSS
Redirect EnergyMeter.DSS
MakeBusList
Redirect BusVoltageBases.dss  ! set voltage bases
Buscoords buscoords.dss
