Examples/ADiakoptics/ckt24/Torn_Circuit/Load.DSS
New "Load.306450100" phases=1 kV=0.24 bus1=g2000sk5500_n274137_sec_1.2 xfkVA=3.42949409 pf=0.98 status=variable model=4 CVRwatts=0.8 CVRvars=3 conn=wye Vminpu=0.7 yearly=LS_PhaseB allocationfactor=1.6463
New "Load.804302100" phases=1 kV=0.24 bus1=g2000sk5500_n274137_sec_2.2 xfkVA=5.66260074 pf=0.98 status=variable model=4 CVRwatts=0.8 CVRvars=3 conn=wye Vminpu=0.7 yearly=LS_PhaseB allocationfactor=1.6463
New "Load.805302100" phases=1 kV=0.24 bus1=g2000sk5500_n274137_sec_3.2 xfkVA=3.22035118 pf=0.98 status=variable model=4 CVRwatts=0.8 CVRvars=3 conn=wye Vminpu=0.7 yearly=LS_PhaseB allocationfactor=1.6463
New "Load.806302100" phases=1 kV=0.24 bus1=g2000sk5500_n274137_sec_4.2 xfkVA=4.14912564 pf=0.98 status=variable model=4 CVRwatts=0.8 CVRvars=3 conn=wye Vminpu=0.7 yearly=LS_PhaseB allocationfactor=1.6463
New "Load.807302100" phases=1 kV=0.24 bus1=g2000sk5500_n274137_sec_5.2 xfkVA=3.14164147 pf=0.98 status=variable model=4 CVRwatts=0.8 CVRvars=3 conn=wye Vminpu=0.7 yearly=LS_PhaseB allocationfactor=1.6463
New "Load.808302100" phases=1 kV=0.24 bus1=g2000sk5500_n274137_sec_6.2 xfkVA=5.45795552 pf=0.98 status=variable model=4 CVRwatts=0.8 CVRvars=3 conn=wye Vminpu=0.7 yearly=LS_PhaseB allocationfactor=1.6463
New "Load.809302100" phases=1 kV=0.24 bus1=g2000sk5500_n274137_sec_7.2 xfkVA=4.32903353 pf=0.98 status=variable model=4 CVRwatts=0.8 CVRvars=3 conn=wye Vminpu=0.7 yearly=LS_PhaseB allocationfactor=1.6463
New "Load.810302100" phases=1 kV=0.24 bus1=g2000sk5500_n274137_sec_8.2 xfkVA=3.47896876 pf=0.98 status=variable model=4 CVRwatts=0.8 CVRvars=3 conn=wye Vminpu=0.7 yearly=LS_PhaseB allocationfactor=1.6463
New "Load.799302100" phases=1 kV=0.24 bus1=g2000sk7800_n274150_sec_1.2 xfkVA=4.02543897 pf=0.98 status=variable model=4 CVRwatts=0.8 CVRvars=3 conn=wye Vminpu=0.7 yearly=LS_PhaseB allocationfactor=1.6463
New "Load.800302100" phases=1 kV=0.24 bus1=g2000sk7800_n274150_sec_2.2 xfkVA=3.41824985 pf=0.98 status=variable model=4 CVRwatts=0.8 CVRvars=3 conn=wye Vminpu=0.7 yearly=LS_PhaseB allocationfactor=1.6463
New "Load.801302100" phases=1 kV=0.24 bus1=g2000sk7800_n274150_sec_3.2 xfkVA=3.1261641 pf=0.98 status=variable model=4 CVRwatts=0.8 CVRvars=3 conn=wye Vminpu=0.7 yearly=LS_PhaseB allocationfactor=1.6463
New "Load.802302100" phases=1 kV=0.24 bus1=g2000sk7800_n274150_sec_4.2 xfkVA=3.00128687 pf=0.98 status=variable model=4 CVRwatts=0.8 CVRvars=3 conn=wye Vminpu=0.7 yearly=LS_PhaseB allocationfactor=1.6463
New "Load.803302100" phases=1 kV=0.24 bus1=g2000sk7800_n274150_sec_5.2 xfkVA=6.85131565 pf=0.98 status=variable model=4 CVRwatts=0.8 CVRvars=3 conn=wye Vminpu=0.7 yearly=LS_PhaseB allocationfactor=1.6463
New "Load.142928100" phases=1 kV=0.24 bus1=g2000tj2700_n274103_sec_1.3 xfkVA=6.70831534 pf=0.98 status=variable model=4 CVRwatts=0.8 CVRvars=3 conn=wye Vminpu=0.7 yearly=LS_PhaseC allocationfactor=0.81012
New "Load.492202100" phases=1 kV=0.24 bus1=g2000tj2700_n274103_sec_2.3 xfkVA=2.16339234 pf=0.98 status=variable model=4 CVRwatts=0.8 CVRvars=3 conn=wye Vminpu=0.7 yearly=LS_PhaseC allocationfactor=0.81012
New "Load.495202100" phases=1 kV=0.24 bus1=g2000tj2700_n274103_sec_3.3 xfkVA=3.39126367 pf=0.98 status=variable model=4 CVRwatts=0.8 CVRvars=3 conn=wye Vminpu=0.7 yearly=LS_PhaseC allocationfactor=0.81012
New "Load.660202100" phases=1 kV=0.24 bus1=g2000tj2700_n274103_sec_4.3 xfkVA=5.26905224 pf=0.98 status=variable model=4 CVRwatts=0.8 CVRvars=3 conn=wye Vminpu=0.7 yearly=LS_PhaseC allocationfactor=0.81012
New "Load.284450100" phases=1 kV=0.24 bus1=g2000tl1200_n283789_sec_1.2 xfkVA=3.85002878 pf=0.98 status=variable model=4 CVRwatts=0.8 CVRvars=3 conn=wye Vminpu=0.7 yearly=LS_PhaseB allocationfactor=1.6463
New "Load.793102100" phases=1 kV=0.24 bus1=g2000tl1200_n283789_sec_2.2 xfkVA=2.70536485 pf=0.98 status=variable model=4 CVRwatts=0.8 CVRvars=3 conn=wye Vminpu=0.7 yearly=LS_PhaseB allocationfactor=1.6463
New "Load.795302100" phases=1 kV=0.24 bus1=g2000tl1200_n283789_sec_3.2 xfkVA=3.33054476 pf=0.98 status=variable model=4 CVRwatts=0.8 CVRvars=3 conn=wye Vminpu=0.7 yearly=LS_PhaseB allocationfactor=1.6463
New "Load.796302100" phases=1 kV=0.24 bus1=g2000tl1200_n283789_sec_4.2 xfkVA=3.13714378 pf=0.98 status=variable model=4 CVRwatts=0.8 CVRvars=3 conn=wye Vminpu=0.7 yearly=LS_PhaseB allocationfactor=1.6463
New "Load.797302100" phases=1 kV=0.24 bus1=g2000tl1200_n283789_sec_5.2 xfkVA=2.15489669 pf=0.98 status=variable model=4 CVRwatts=0.8 CVRvars=3 conn=wye Vminpu=0.7 yearly=LS_PhaseB allocationfactor=1.6463
New "Load.798302100" phases=1 kV=0.24 bus1=g2000tl1200_n283789_sec_6.2 xfkVA=3.23609312 pf=0.98 status=variable model=4 CVRwatts=0.8 CVRvars=3 conn=wye Vminpu=0.7 yearly=LS_PhaseB allocationfactor=1.6463
New "Load.242450100" phases=1 kV=0.24 bus1=g2000tl5600_n283806_sec_1.2 xfkVA=3.30130972 pf=0.98 status=variable model=4 CVRwatts=0.8 CVRvars=3 conn=wye Vminpu=0.7 yearly=LS_PhaseB allocationfactor=1.6463
New "Load.275450100" phases=1 kV=0.24 bus1=g2000tl5600_n283806_sec_2.2 xfkVA=3.22260002 pf=0.98 status=variable model=4 CVRwatts=0.8 CVRvars=3 conn=wye Vminpu=0.7 yearly=LS_PhaseB allocationfactor=1.6463
New "Load.286450100" phases=1 kV=0.24 bus1=g2000tl5600_n283806_sec_3.2 xfkVA=3.48796416 pf=0.98 status=variable model=4 CVRwatts=0.8 CVRvars=3 conn=wye Vminpu=0.7 yearly=LS_PhaseB allocationfactor=1.6463
New "Load.287450100" phases=1 kV=0.24 bus1=g2000tl5600_n283806_sec_4.2 xfkVA=4.60789075 pf=0.98 status=variable model=4 CVRwatts=0.8 CVRvars=3 conn=wye Vminpu=0.7 yearly=LS_PhaseB allocationfactor=1.6463
New "Load.141450100" phases=1 kV=0.24 bus1=g2000uh9400_n283633_sec_1.3 xfkVA=3.32829591 pf=0.98 status=variable model=4 CVRwatts=0.8 CVRvars=3 conn=wye Vminpu=0.7 yearly=LS_PhaseC allocationfactor=0.81012
New "Load.82450100" phases=1 kV=0.24 bus1=g2000uh9400_n283633_sec_2.3 xfkVA=3.22709772 pf=0.98 status=variable model=4 CVRwatts=0.8 CVRvars=3 conn=wye Vminpu=0.7 yearly=LS_PhaseC allocationfactor=0.81012
New "Load.84450100" phases=1 kV=0.24 bus1=g2000uh9400_n283633_sec_3.3 xfkVA=2.70086715 pf=0.98 status=variable model=4 CVRwatts=0.8 CVRvars=3 conn=wye Vminpu=0.7 yearly=LS_PhaseC allocationfactor=0.81012
New "Load.516028100" phases=1 kV=0.24 bus1=g2000uh9800_n283647_sec_1.3 xfkVA=3.22035118 pf=0.98 status=variable model=4 CVRwatts=0.8 CVRvars=3 conn=wye Vminpu=0.7 yearly=LS_PhaseC allocationfactor=0.81012
New "Load.981528100" phases=1 kV=0.24 bus1=g2000uh9800_n283647_sec_2.3 xfkVA=3.1753742 pf=0.98 status=variable model=4 CVRwatts=0.8 CVRvars=3 conn=wye Vminpu=0.7 yearly=LS_PhaseC allocationfactor=0.81012
New "Load.509202100" phases=1 kV=0.24 bus1=g2000ui3100_n283702_sec_1.3 xfkVA=3.46949634 pf=0.98 status=variable model=4 CVRwatts=0.8 CVRvars=3 conn=wye Vminpu=0.7 yearly=LS_PhaseC allocationfactor=0.81012
New "Load.606118100" phases=1 kV=0.24 bus1=g2000ui3100_n283702_sec_2.3 xfkVA=2.52320811 pf=0.98 status=variable model=4 CVRwatts=0.8 CVRvars=3 conn=wye Vminpu=0.7 yearly=LS_PhaseC allocationfactor=0.81012
New "Load.659202100" phases=1 kV=0.24 bus1=g2000ui3100_n283702_sec_3.3 xfkVA=2.3638806 pf=0.98 status=variable model=4 CVRwatts=0.8 CVRvars=3 conn=wye Vminpu=0.7 yearly=LS_PhaseC allocationfactor=0.81012
New "Load.84518100" phases=1 kV=0.24 bus1=g2000ui3100_n283702_sec_4.3 xfkVA=3.31248582 pf=0.98 status=variable model=4 CVRwatts=0.8 CVRvars=3 conn=wye Vminpu=0.7 yearly=LS_PhaseC allocationfactor=0.81012
New "Load.100450100" phases=1 kV=0.24 bus1=g2000ui5400_n283699_sec_1.3 xfkVA=3.42949409 pf=0.98 status=variable model=4 CVRwatts=0.8 CVRvars=3 conn=wye Vminpu=0.7 yearly=LS_PhaseC allocationfactor=0.81012
New "Load.145450100" phases=1 kV=0.24 bus1=g2000ui5400_n283699_sec_2.3 xfkVA=7.64117862 pf=0.98 status=variable model=4 CVRwatts=0.8 CVRvars=3 conn=wye Vminpu=0.7 yearly=LS_PhaseC allocationfactor=0.81012
New "Load.80450100" phases=1 kV=0.24 bus1=g2000ui5400_n283699_sec_3.3 xfkVA=4.0501763 pf=0.98 status=variable model=4 CVRwatts=0.8 CVRvars=3 conn=wye Vminpu=0.7 yearly=LS_PhaseC allocationfactor=0.81012
New "Load.90450100" phases=1 kV=0.24 bus1=g2000ui5400_n283699_sec_4.3 xfkVA=5.7300662 pf=0.98 status=variable model=4 CVRwatts=0.8 CVRvars=3 conn=wye Vminpu=0.7 yearly=LS_PhaseC allocationfactor=0.81012
New "Load.95450100" phases=1 kV=0.24 bus1=g2000ui5400_n283699_sec_5.3 xfkVA=4.12370684 pf=0.98 status=variable model=4 CVRwatts=0.8 CVRvars=3 conn=wye Vminpu=0.7 yearly=LS_PhaseC allocationfactor=0.81012
New "Load.960350100" phases=1 kV=0.24 bus1=g2000ui5400_n283699_sec_6.3 xfkVA=3.33054476 pf=0.98 status=variable model=4 CVRwatts=0.8 CVRvars=3 conn=wye Vminpu=0.7 yearly=LS_PhaseC allocationfactor=0.81012
New "Load.537202100" phases=1 kV=0.24 bus1=g2000ui6400_n283679_sec_1.3 xfkVA=3.30376301 pf=0.98 status=variable model=4 CVRwatts=0.8 CVRvars=3 conn=wye Vminpu=0.7 yearly=LS_PhaseC allocationfactor=0.81012
New "Load.583908100" phases=1 kV=0.24 bus1=g2000ui6400_n283679_sec_2.3 xfkVA=2.39727259 pf=0.98 status=variable model=4 CVRwatts=0.8 CVRvars=3 conn=wye Vminpu=0.7 yearly=LS_PhaseC allocationfactor=0.81012
New "Load.642202100" phases=1 kV=0.24 bus1=g2000ui6400_n283679_sec_3.3 xfkVA=1.33895082 pf=0.98 status=variable model=4 CVRwatts=0.8 CVRvars=3 conn=wye Vminpu=0.7 yearly=LS_PhaseC allocationfactor=0.81012
New "Load.745202100" phases=1 kV=0.24 bus1=g2000ui6400_n283679_sec_4.3 xfkVA=3.01570595 pf=0.98 status=variable model=4 CVRwatts=0.8 CVRvars=3 conn=wye Vminpu=0.7 yearly=LS_PhaseC allocationfactor=0.81012
New "Load.240450100" phases=1 kV=0.24 bus1=g2000uj0800_n283722_sec_1.3 xfkVA=4.21883995 pf=0.98 status=variable model=4 CVRwatts=0.8 CVRvars=3 conn=wye Vminpu=0.7 yearly=LS_PhaseC allocationfactor=0.81012
New "Load.505202100" phases=1 kV=0.24 bus1=g2000uj0800_n283722_sec_2.3 xfkVA=1.96099597 pf=0.98 status=variable model=4 CVRwatts=0.8 CVRvars=3 conn=wye Vminpu=0.7 yearly=LS_PhaseC allocationfactor=0.81012
New "Load.643202100" phases=1 kV=0.24 bus1=g2000uj0800_n283722_sec_3.3 xfkVA=5.19708909 pf=0.98 status=variable model=4 CVRwatts=0.8 CVRvars=3 conn=wye Vminpu=0.7 yearly=LS_PhaseC allocationfactor=0.81012
New "Load.126450100" phases=1 kV=0.24 bus1=g2000uj3600_n283731_sec_1.2 xfkVA=2.92125431 pf=0.98 status=variable model=4 CVRwatts=0.8 CVRvars=3 conn=wye Vminpu=0.7 yearly=LS_PhaseB allocationfactor=1.6463
New "Load.136450100" phases=1 kV=0.24 bus1=g2000uj3600_n283731_sec_2.2 xfkVA=4.20759571 pf=0.98 status=variable model=4 CVRwatts=0.8 CVRvars=3 conn=wye Vminpu=0.7 yearly=LS_PhaseB allocationfactor=1.6463
New "Load.85450100" phases=1 kV=0.24 bus1=g2000uj3600_n283731_sec_3.2 xfkVA=6.79602043 pf=0.98 status=variable model=4 CVRwatts=0.8 CVRvars=3 conn=wye Vminpu=0.7 yearly=LS_PhaseB allocationfactor=1.6463
New "Load.86450100" phases=1 kV=0.24 bus1=g2000uj3600_n283731_sec_4.2 xfkVA=3.27882124 pf=0.98 status=variable model=4 CVRwatts=0.8 CVRvars=3 conn=wye Vminpu=0.7 yearly=LS_PhaseB allocationfactor=1.6463
New "Load.91450100" phases=1 kV=0.24 bus1=g2000uj3600_n283731_sec_5.2 xfkVA=3.19336499 pf=0.98 status=variable model=4 CVRwatts=0.8 CVRvars=3 conn=wye Vminpu=0.7 yearly=LS_PhaseB allocationfactor=1.6463
New "Load.99450100" phases=1 kV=0.24 bus1=g2000uj3600_n283731_sec_6.2 xfkVA=4.58765112 pf=0.98 status=variable model=4 CVRwatts=0.8 CVRvars=3 conn=wye Vminpu=0.7 yearly=LS_PhaseB allocationfactor=1.6463
New "Load.117450100" phases=1 kV=0.24 bus1=g2000uj6500_n283747_sec_1.2 xfkVA=4.4617156 pf=0.98 status=variable model=4 CVRwatts=0.8 CVRvars=3 conn=wye Vminpu=0.7 yearly=LS_PhaseB allocationfactor=1.6463
New "Load.143450100" phases=1 kV=0.24 bus1=g2000uj6500_n283747_sec_2.2 xfkVA=6.66333837 pf=0.98 status=variable model=4 CVRwatts=0.8 CVRvars=3 conn=wye Vminpu=0.7 yearly=LS_PhaseB allocationfactor=1.6463
New "Load.1450100" phases=1 kV=0.24 bus1=g2000uj6500_n283747_sec_3.2 xfkVA=2.47073498 pf=0.98 status=variable model=4 CVRwatts=0.8 CVRvars=3 conn=wye Vminpu=0.7 yearly=LS_PhaseB allocationfactor=1.6463
New "Load.150450100" phases=1 kV=0.24 bus1=g2000uj6500_n283747_sec_4.2 xfkVA=3.55992731 pf=0.98 status=variable model=4 CVRwatts=0.8 CVRvars=3 conn=wye Vminpu=0.7 yearly=LS_PhaseB allocationfactor=1.6463
New "Load.450100" phases=1 kV=0.24 bus1=g2000uj6500_n283747_sec_5.2 xfkVA=4.18510722 pf=0.98 status=variable model=4 CVRwatts=0.8 CVRvars=3 conn=wye Vminpu=0.7 yearly=LS_PhaseB allocationfactor=1.6463
New "Load.931250100" phases=1 kV=0.24 bus1=g2000uj6500_n283747_sec_6.2 xfkVA=5.17684945 pf=0.98 status=variable model=4 CVRwatts=0.8 CVRvars=3 conn=wye Vminpu=0.7 yearly=LS_PhaseB allocationfactor=1.6463
New "Load.98450100" phases=1 kV=0.24 bus1=g2000uj6500_n283747_sec_7.2 xfkVA=1.94525402 pf=0.98 status=variable model=4 CVRwatts=0.8 CVRvars=3 conn=wye Vminpu=0.7 yearly=LS_PhaseB allocationfactor=1.6463
New "Load.637202100" phases=1 kV=0.24 bus1=g2000uk1100_n283753_sec_1.3 xfkVA=3.33054476 pf=0.98 status=variable model=4 CVRwatts=0.8 CVRvars=3 conn=wye Vminpu=0.7 yearly=LS_PhaseC allocationfactor=0.81012
New "Load.954350100" phases=1 kV=0.24 bus1=g2000uk1100_n283753_sec_2.3 xfkVA=3.42724525 pf=0.98 status=variable model=4 CVRwatts=0.8 CVRvars=3 conn=wye Vminpu=0.7 yearly=LS_PhaseC allocationfactor=0.81012
New "Load.96450100" phases=1 kV=0.24 bus1=g2000uk1100_n283753_sec_3.3 xfkVA=3.45198258 pf=0.98 status=variable model=4 CVRwatts=0.8 CVRvars=3 conn=wye Vminpu=0.7 yearly=LS_PhaseC allocationfactor=0.81012
New "Load.974350100" phases=1 kV=0.24 bus1=g2000uk1100_n283753_sec_4.3 xfkVA=4.46621329 pf=0.98 status=variable model=4 CVRwatts=0.8 CVRvars=3 conn=wye Vminpu=0.7 yearly=LS_PhaseC allocationfactor=0.81012
New "Load.997350100" phases=1 kV=0.24 bus1=g2000uk1100_n283753_sec_5.3 xfkVA=9.3956894 pf=0.98 status=variable model=4 CVRwatts=0.8 CVRvars=3 conn=wye Vminpu=0.7 yearly=LS_PhaseC allocationfactor=0.81012
New "Load.282450100" phases=1 kV=0.24 bus1=g2000ul1900_n283810_sec_1.2 xfkVA=4.16261873 pf=0.98 status=variable model=4 CVRwatts=0.8 CVRvars=3 conn=wye Vminpu=0.7 yearly=LS_PhaseB allocationfactor=1.6463
New "Load.285450100" phases=1 kV=0.24 bus1=g2000ul1900_n283810_sec_2.2 xfkVA=3.28556778 pf=0.98 status=variable model=4 CVRwatts=0.8 CVRvars=3 conn=wye Vminpu=0.7 yearly=LS_PhaseB allocationfactor=1.6463
New "Load.201450100" phases=1 kV=0.24 bus1=g2000ul3200_n283772_sec_1.2 xfkVA=4.31778929 pf=0.98 status=variable model=4 CVRwatts=0.8 CVRvars=3 conn=wye Vminpu=0.7 yearly=LS_PhaseB allocationfactor=1.6463
New "Load.202450100" phases=1 kV=0.24 bus1=g2000ul3200_n283772_sec_2.2 xfkVA=3.26083045 pf=0.98 status=variable model=4 CVRwatts=0.8 CVRvars=3 conn=wye Vminpu=0.7 yearly=LS_PhaseB allocationfactor=1.6463
New "Load.241450100" phases=1 kV=0.24 bus1=g2000ul3200_n283772_sec_3.2 xfkVA=3.35294995 pf=0.98 status=variable model=4 CVRwatts=0.8 CVRvars=3 conn=wye Vminpu=0.7 yearly=LS_PhaseB allocationfactor=1.6463
New "Load.276450100" phases=1 kV=0.24 bus1=g2000ul3200_n283772_sec_4.2 xfkVA=2.07793609 pf=0.98 status=variable model=4 CVRwatts=0.8 CVRvars=3 conn=wye Vminpu=0.7 yearly=LS_PhaseB allocationfactor=1.6463
New "Load.277450100" phases=1 kV=0.24 bus1=g2000ul3200_n283772_sec_5.2 xfkVA=2.98647092 pf=0.98 status=variable model=4 CVRwatts=0.8 CVRvars=3 conn=wye Vminpu=0.7 yearly=LS_PhaseB allocationfactor=1.6463
New "Load.279450100" phases=1 kV=0.24 bus1=g2000ul3200_n283772_sec_6.2 xfkVA=4.39200129 pf=0.98 status=variable model=4 CVRwatts=0.8 CVRvars=3 conn=wye Vminpu=0.7 yearly=LS_PhaseB allocationfactor=1.6463
New "Load.751350100" phases=1 kV=0.24 bus1=g2000ul3200_n283772_sec_7.2 xfkVA=3.36202864 pf=0.98 status=variable model=4 CVRwatts=0.8 CVRvars=3 conn=wye Vminpu=0.7 yearly=LS_PhaseB allocationfactor=1.6463
New "Load.997250100" phases=1 kV=0.24 bus1=g2000ul7700_n283791_sec_1.2 xfkVA=2.76383491 pf=0.98 status=variable model=4 CVRwatts=0.8 CVRvars=3 conn=wye Vminpu=0.7 yearly=LS_PhaseB allocationfactor=1.6463
New "Load.998250100" phases=1 kV=0.24 bus1=g2000ul7700_n283791_sec_2.2 xfkVA=3.24733736 pf=0.98 status=variable model=4 CVRwatts=0.8 CVRvars=3 conn=wye Vminpu=0.7 yearly=LS_PhaseB allocationfactor=1.6463
New "Load.350100" phases=1 kV=0.24 bus1=g2000um7300_n283821_sec_1.2 xfkVA=3.34228874 pf=0.98 status=variable model=4 CVRwatts=0.8 CVRvars=3 conn=wye Vminpu=0.7 yearly=LS_PhaseB allocationfactor=1.6463
New "Load.999250100" phases=1 kV=0.24 bus1=g2000um7300_n283821_sec_2.2 xfkVA=4.45638499 pf=0.98 status=variable model=4 CVRwatts=0.8 CVRvars=3 conn=wye Vminpu=0.7 yearly=LS_PhaseB allocationfactor=1.6463
New "Load.986250100" phases=1 kV=0.24 bus1=g2000vh9100_n283615_sec_1.3 xfkVA=1.21662708 pf=0.98 status=variable model=4 CVRwatts=0.8 CVRvars=3 conn=wye Vminpu=0.7 yearly=LS_PhaseC allocationfactor=0.81012
New "Load.987250100" phases=1 kV=0.24 bus1=g2000vh9100_n283615_sec_2.3 xfkVA=23.89644958 pf=0.98 status=variable model=4 CVRwatts=0.8 CVRvars=3 conn=wye Vminpu=0.7 yearly=LS_PhaseC allocationfactor=0.81012
New "Load.108450100" phases=1 kV=0.24 bus1=g2000vh9500_n283675_sec_1.2 xfkVA=5.60637953 pf=0.98 status=variable model=4 CVRwatts=0.8 CVRvars=3 conn=wye Vminpu=0.7 yearly=LS_PhaseB allocationfactor=1.6463
New "Load.116450100" phases=1 kV=0.24 bus1=g2000vh9500_n283675_sec_2.2 xfkVA=3.12589953 pf=0.98 status=variable model=4 CVRwatts=0.8 CVRvars=3 conn=wye Vminpu=0.7 yearly=LS_PhaseB allocationfactor=1.6463
New "Load.132450100" phases=1 kV=0.24 bus1=g2000vh9500_n283675_sec_3.2 xfkVA=5.37699697 pf=0.98 status=variable model=4 CVRwatts=0.8 CVRvars=3 conn=wye Vminpu=0.7 yearly=LS_PhaseB allocationfactor=1.6463
New "Load.133450100" phases=1 kV=0.24 bus1=g2000vh9500_n283675_sec_4.2 xfkVA=6.06514464 pf=0.98 status=variable model=4 CVRwatts=0.8 CVRvars=3 conn=wye Vminpu=0.7 yearly=LS_PhaseB allocationfactor=1.6463
New "Load.134450100" phases=1 kV=0.24 bus1=g2000vh9500_n283675_sec_5.2 xfkVA=3.05168753 pf=0.98 status=variable model=4 CVRwatts=0.8 CVRvars=3 conn=wye Vminpu=0.7 yearly=LS_PhaseB allocationfactor=1.6463
New "Load.135450100" phases=1 kV=0.24 bus1=g2000vh9500_n283675_sec_6.2 xfkVA=3.26083045 pf=0.98 status=variable model=4 CVRwatts=0.8 CVRvars=3 conn=wye Vminpu=0.7 yearly=LS_PhaseB allocationfactor=1.6463
New "Load.151450100" phases=1 kV=0.24 bus1=g2000vh9500_n283675_sec_7.2 xfkVA=3.15963226 pf=0.98 status=variable model=4 CVRwatts=0.8 CVRvars=3 conn=wye Vminpu=0.7 yearly=LS_PhaseB allocationfactor=1.6463
New "Load.153450100" phases=1 kV=0.24 bus1=g2000vh9500_n283675_sec_8.2 xfkVA=3.24508851 pf=0.98 status=variable model=4 CVRwatts=0.8 CVRvars=3 conn=wye Vminpu=0.7 yearly=LS_PhaseB allocationfactor=1.6463
New "Load.154450100" phases=1 kV=0.24 bus1=g2000vh9500_n283675_sec_9.2 xfkVA=4.01869242 pf=0.98 status=variable model=4 CVRwatts=0.8 CVRvars=3 conn=wye Vminpu=0.7 yearly=LS_PhaseB allocationfactor=1.6463
New "Load.31450100" phases=1 kV=0.24 bus1=g2000vh9500_n283675_sec_10.2 xfkVA=3.4204987 pf=0.98 status=variable model=4 CVRwatts=0.8 CVRvars=3 conn=wye Vminpu=0.7 yearly=LS_PhaseB allocationfactor=1.6463
New "Load.46450100" phases=1 kV=0.24 bus1=g2000vh9500_n283675_sec_11.2 xfkVA=2.98871977 pf=0.98 status=variable model=4 CVRwatts=0.8 CVRvars=3 conn=wye Vminpu=0.7 yearly=LS_PhaseB allocationfactor=1.6463
New "Load.589503200" phases=1 kV=0.24 bus1=g2000vh9500_n283675_sec_12.2 xfkVA=0.61618451 pf=0.98 status=variable model=4 CVRwatts=0.8 CVRvars=3 conn=wye Vminpu=0.7 yearly=LS_PhaseB allocationfactor=1.6463
New "Load.81450100" phases=1 kV=0.24 bus1=g2000vh9500_n283675_sec_13.2 xfkVA=2.81555843 pf=0.98 status=variable model=4 CVRwatts=0.8 CVRvars=3 conn=wye Vminpu=0.7 yearly=LS_PhaseB allocationfactor=1.6463
New "Load.953350100" phases=1 kV=0.24 bus1=g2000vh9500_n283675_sec_14.2 xfkVA=3.38451712 pf=0.98 status=variable model=4 CVRwatts=0.8 CVRvars=3 conn=wye Vminpu=0.7 yearly=LS_PhaseB allocationfactor=1.6463
New "Load.105450100" phases=1 kV=0.24 bus1=g2000vi6200_n283684_sec_1.2 xfkVA=2.79756764 pf=0.98 status=variable model=4 CVRwatts=0.8 CVRvars=3 conn=wye Vminpu=0.7 yearly=LS_PhaseB allocationfactor=1.6463
New "Load.109450100" phases=1 kV=0.24 bus1=g2000vi6200_n283684_sec_2.2 xfkVA=3.5436402 pf=0.98 status=variable model=4 CVRwatts=0.8 CVRvars=3 conn=wye Vminpu=0.7 yearly=LS_PhaseB allocationfactor=1.6463
New "Load.11450100" phases=1 kV=0.24 bus1=g2000vi6200_n283684_sec_3.2 xfkVA=3.33054476 pf=0.98 status=variable model=4 CVRwatts=0.8 CVRvars=3 conn=wye Vminpu=0.7 yearly=LS_PhaseB allocationfactor=1.6463
New "Load.122450100" phases=1 kV=0.24 bus1=g2000vi6200_n283684_sec_4.2 xfkVA=5.31852691 pf=0.98 status=variable model=4 CVRwatts=0.8 CVRvars=3 conn=wye Vminpu=0.7 yearly=LS_PhaseB allocationfactor=1.6463
New "Load.123450100" phases=1 kV=0.24 bus1=g2000vi6200_n283684_sec_5.2 xfkVA=3.267577 pf=0.98 status=variable model=4 CVRwatts=0.8 CVRvars=3 conn=wye Vminpu=0.7 yearly=LS_PhaseB allocationfactor=1.6463
New "Load.127450100" phases=1 kV=0.24 bus1=g2000vi6200_n283684_sec_6.2 xfkVA=6.11686816 pf=0.98 status=variable model=4 CVRwatts=0.8 CVRvars=3 conn=wye Vminpu=0.7 yearly=LS_PhaseB allocationfactor=1.6463
New "Load.147450100" phases=1 kV=0.24 bus1=g2000vi6200_n283684_sec_7.2 xfkVA=5.14536557 pf=0.98 status=variable model=4 CVRwatts=0.8 CVRvars=3 conn=wye Vminpu=0.7 yearly=LS_PhaseB allocationfactor=1.6463
New "Load.148450100" phases=1 kV=0.24 bus1=g2000vi6200_n283684_sec_8.2 xfkVA=2.16543675 pf=0.98 status=variable model=4 CVRwatts=0.8 CVRvars=3 conn=wye Vminpu=0.7 yearly=LS_PhaseB allocationfactor=1.6463
New "Load.149450100" phases=1 kV=0.24 bus1=g2000vi6200_n283684_sec_9.2 xfkVA=4.49224542 pf=0.98 status=variable model=4 CVRwatts=0.8 CVRvars=3 conn=wye Vminpu=0.7 yearly=LS_PhaseB allocationfactor=1.6463
New "Load.3450100" phases=1 kV=0.24 bus1=g2000vi6200_n283684_sec_10.2 xfkVA=3.267577 pf=0.98 status=variable model=4 CVRwatts=0.8 CVRvars=3 conn=wye Vminpu=0.7 yearly=LS_PhaseB allocationfactor=1.6463
New "Load.47450100" phases=1 kV=0.24 bus1=g2000vi6200_n283684_sec_11.2 xfkVA=5.85150402 pf=0.98 status=variable model=4 CVRwatts=0.8 CVRvars=3 conn=wye Vminpu=0.7 yearly=LS_PhaseB allocationfactor=1.6463
New "Load.486350100" phases=1 kV=0.24 bus1=g2000vi6200_n283684_sec_12.2 xfkVA=3.05843408 pf=0.98 status=variable model=4 CVRwatts=0.8 CVRvars=3 conn=wye Vminpu=0.7 yearly=LS_PhaseB allocationfactor=1.6463
New "Load.987350100" phases=1 kV=0.24 bus1=g2000vi6200_n283684_sec_13.2 xfkVA=5.08464666 pf=0.98 status=variable model=4 CVRwatts=0.8 CVRvars=3 conn=wye Vminpu=0.7 yearly=LS_PhaseB allocationfactor=1.6463
New "Load.142450100" phases=1 kV=0.24 bus1=g2000vj0200_n283716_sec_1.2 xfkVA=5.12512593 pf=0.98 status=variable model=4 CVRwatts=0.8 CVRvars=3 conn=wye Vminpu=0.7 yearly=LS_PhaseB allocationfactor=1.6463
New "Load.146450100" phases=1 kV=0.24 bus1=g2000vj0200_n283716_sec_2.2 xfkVA=2.79347882 pf=0.98 status=variable model=4 CVRwatts=0.8 CVRvars=3 conn=wye Vminpu=0.7 yearly=LS_PhaseB allocationfactor=1.6463
New "Load.485350100" phases=1 kV=0.24 bus1=g2000vj0200_n283716_sec_3.2 xfkVA=3.51529108 pf=0.98 status=variable model=4 CVRwatts=0.8 CVRvars=3 conn=wye Vminpu=0.7 yearly=LS_PhaseB allocationfactor=1.6463
New "Load.487350100" phases=1 kV=0.24 bus1=g2000vj0200_n283716_sec_4.2 xfkVA=5.1181068 pf=0.98 status=variable model=4 CVRwatts=0.8 CVRvars=3 conn=wye Vminpu=0.7 yearly=LS_PhaseB allocationfactor=1.6463
New "Load.979350100" phases=1 kV=0.24 bus1=g2000vj0200_n283716_sec_5.2 xfkVA=4.50314893 pf=0.98 status=variable model=4 CVRwatts=0.8 CVRvars=3 conn=wye Vminpu=0.7 yearly=LS_PhaseB allocationfactor=1.6463
New "Load.988350100" phases=1 kV=0.24 bus1=g2000vj0200_n283716_sec_6.2 xfkVA=5.28165942 pf=0.98 status=variable model=4 CVRwatts=0.8 CVRvars=3 conn=wye Vminpu=0.7 yearly=LS_PhaseB allocationfactor=1.6463
New "Load.999350100" phases=1 kV=0.24 bus1=g2000vj0200_n283716_sec_7.2 xfkVA=2.33771218 pf=0.98 status=variable model=4 CVRwatts=0.8 CVRvars=3 conn=wye Vminpu=0.7 yearly=LS_PhaseB allocationfactor=1.6463
New "Load.11350100" phases=1 kV=0.24 bus1=g2000vl8700_n283799_sec_1.3 xfkVA=4.30446278 pf=0.98 status=variable model=4 CVRwatts=0.8 CVRvars=3 conn=wye Vminpu=0.7 yearly=LS_PhaseC allocationfactor=0.81012
New "Load.12350100" phases=1 kV=0.24 bus1=g2000vl8700_n283799_sec_2.3 xfkVA=4.25382204 pf=0.98 status=variable model=4 CVRwatts=0.8 CVRvars=3 conn=wye Vminpu=0.7 yearly=LS_PhaseC allocationfactor=0.81012
New "Load.310450100" phases=1 kV=0.24 bus1=g2000vl8700_n283799_sec_3.3 xfkVA=6.29544339 pf=0.98 status=variable model=4 CVRwatts=0.8 CVRvars=3 conn=wye Vminpu=0.7 yearly=LS_PhaseC allocationfactor=0.81012
New "Load.1350100" phases=1 kV=0.24 bus1=g2000vm1500_n283827_sec_1.2 xfkVA=6.74321414 pf=0.98 status=variable model=4 CVRwatts=0.8 CVRvars=3 conn=wye Vminpu=0.7 yearly=LS_PhaseB allocationfactor=1.6463
New "Load.2350100" phases=1 kV=0.24 bus1=g2000vm1500_n283827_sec_2.2 xfkVA=2.92650163 pf=0.98 status=variable model=4 CVRwatts=0.8 CVRvars=3 conn=wye Vminpu=0.7 yearly=LS_PhaseB allocationfactor=1.6463
New "Load.3350100" phases=1 kV=0.24 bus1=g2000vm6800_n283833_sec_1.2 xfkVA=3.32896223 pf=0.98 status=variable model=4 CVRwatts=0.8 CVRvars=3 conn=wye Vminpu=0.7 yearly=LS_PhaseB allocationfactor=1.6463
New "Load.4350100" phases=1 kV=0.24 bus1=g2000vm6800_n283833_sec_2.2 xfkVA=5.43988144 pf=0.98 status=variable model=4 CVRwatts=0.8 CVRvars=3 conn=wye Vminpu=0.7 yearly=LS_PhaseB allocationfactor=1.6463
New "Load.981350100" phases=1 kV=0.24 bus1=g2000wh5900_n283675_sec_1.2 xfkVA=3.22260002 pf=0.98 status=variable model=4 CVRwatts=0.8 CVRvars=3 conn=wye Vminpu=0.7 yearly=LS_PhaseB allocationfactor=1.6463
New "Load.996350100" phases=1 kV=0.24 bus1=g2000wh5900_n283675_sec_2.2 xfkVA=4.67310736 pf=0.98 status=variable model=4 CVRwatts=0.8 CVRvars=3 conn=wye Vminpu=0.7 yearly=LS_PhaseB allocationfactor=1.6463
New "Load.112450100" phases=1 kV=0.24 bus1=g2000wi4400_n283710_sec_1.2 xfkVA=5.39941731 pf=0.98 status=variable model=4 CVRwatts=0.8 CVRvars=3 conn=wye Vminpu=0.7 yearly=LS_PhaseB allocationfactor=1.6463
New "Load.121450100" phases=1 kV=0.24 bus1=g2000wi4400_n283710_sec_2.2 xfkVA=3.11690414 pf=0.98 status=variable model=4 CVRwatts=0.8 CVRvars=3 conn=wye Vminpu=0.7 yearly=LS_PhaseB allocationfactor=1.6463
New "Load.125450100" phases=1 kV=0.24 bus1=g2000wi4400_n283710_sec_3.2 xfkVA=3.32120863 pf=0.98 status=variable model=4 CVRwatts=0.8 CVRvars=3 conn=wye Vminpu=0.7 yearly=LS_PhaseB allocationfactor=1.6463
New "Load.4450100" phases=1 kV=0.24 bus1=g2000wi4400_n283710_sec_4.2 xfkVA=5.31852691 pf=0.98 status=variable model=4 CVRwatts=0.8 CVRvars=3 conn=wye Vminpu=0.7 yearly=LS_PhaseB allocationfactor=1.6463
New "Load.938350100" phases=1 kV=0.24 bus1=g2000wi4400_n283710_sec_5.2 xfkVA=3.2797753 pf=0.98 status=variable model=4 CVRwatts=0.8 CVRvars=3 conn=wye Vminpu=0.7 yearly=LS_PhaseB allocationfactor=1.6463
New "Load.973350100" phases=1 kV=0.24 bus1=g2000wi4400_n283710_sec_6.2 xfkVA=5.67200502 pf=0.98 status=variable model=4 CVRwatts=0.8 CVRvars=3 conn=wye Vminpu=0.7 yearly=LS_PhaseB allocationfactor=1.6463
New "Load.982350100" phases=1 kV=0.24 bus1=g2000wi4400_n283710_sec_7.2 xfkVA=2.5012648 pf=0.98 status=variable model=4 CVRwatts=0.8 CVRvars=3 conn=wye Vminpu=0.7 yearly=LS_PhaseB allocationfactor=1.6463
New "Load.996250100" phases=1 kV=0.24 bus1=g2000wk0800_n283765_sec_1.2 xfkVA=9.11097154 pf=0.98 status=variable model=4 CVRwatts=0.8 CVRvars=3 conn=wye Vminpu=0.7 yearly=LS_PhaseB allocationfactor=1.6463
New "Load.994250100" phases=1 kV=0.24 bus1=g2000wk8200_n283746_sec_1.2 xfkVA=3.32338933 pf=0.98 status=variable model=4 CVRwatts=0.8 CVRvars=3 conn=wye Vminpu=0.7 yearly=LS_PhaseB allocationfactor=1.6463
New "Load.183350100" phases=1 kV=0.24 bus1=g2000wl3500_n283799_sec_1.3 xfkVA=3.28781663 pf=0.98 status=variable model=4 CVRwatts=0.8 CVRvars=3 conn=wye Vminpu=0.7 yearly=LS_PhaseC allocationfactor=0.81012
New "Load.184350100" phases=1 kV=0.24 bus1=g2000wl3500_n283799_sec_2.3 xfkVA=4.30654504 pf=0.98 status=variable model=4 CVRwatts=0.8 CVRvars=3 conn=wye Vminpu=0.7 yearly=LS_PhaseC allocationfactor=0.81012
New "Load.131450100" phases=1 kV=0.24 bus1=g2000wl4100_n283765_sec_1.2 xfkVA=2.79981649 pf=0.98 status=variable model=4 CVRwatts=0.8 CVRvars=3 conn=wye Vminpu=0.7 yearly=LS_PhaseB allocationfactor=1.6463
New "Load.982250100" phases=1 kV=0.24 bus1=g2000wl4100_n283765_sec_2.2 xfkVA=5.18359599 pf=0.98 status=variable model=4 CVRwatts=0.8 CVRvars=3 conn=wye Vminpu=0.7 yearly=LS_PhaseB allocationfactor=1.6463
New "Load.991350100" phases=1 kV=0.24 bus1=g2000wl4100_n283765_sec_3.2 xfkVA=8.54787348 pf=0.98 status=variable model=4 CVRwatts=0.8 CVRvars=3 conn=wye Vminpu=0.7 yearly=LS_PhaseB allocationfactor=1.6463
New "Load.464509570" phases=1 kV=0.24 bus1=g2000wl9300_n283779_sec_1.2 xfkVA=0.53962178 pf=0.98 status=variable model=4 CVRwatts=0.8 CVRvars=3 conn=wye Vminpu=0.7 yearly=LS_PhaseB allocationfactor=1.6463
New "Load.937250100" phases=1 kV=0.24 bus1=g2000wl9300_n283779_sec_2.2 xfkVA=4.35243821 pf=0.98 status=variable model=4 CVRwatts=0.8 CVRvars=3 conn=wye Vminpu=0.7 yearly=LS_PhaseB allocationfactor=1.6463
New "Load.10350100" phases=1 kV=0.24 bus1=g2000wm0100_n283809_sec_1.3 xfkVA=4.1978507 pf=0.98 status=variable model=4 CVRwatts=0.8 CVRvars=3 conn=wye Vminpu=0.7 yearly=LS_PhaseC allocationfactor=0.81012
New "Load.610350100" phases=1 kV=0.24 bus1=g2000wm0100_n283809_sec_2.3 xfkVA=2.59067357 pf=0.98 status=variable model=4 CVRwatts=0.8 CVRvars=3 conn=wye Vminpu=0.7 yearly=LS_PhaseC allocationfactor=0.81012
New "Load.185350100" phases=1 kV=0.24 bus1=g2000wm3200_n283819_sec_1.3 xfkVA=4.17836067 pf=0.98 status=variable model=4 CVRwatts=0.8 CVRvars=3 conn=wye Vminpu=0.7 yearly=LS_PhaseC allocationfactor=0.81012
New "Load.186350100" phases=1 kV=0.24 bus1=g2000wm3200_n283819_sec_2.3 xfkVA=4.16936528 pf=0.98 status=variable model=4 CVRwatts=0.8 CVRvars=3 conn=wye Vminpu=0.7 yearly=LS_PhaseC allocationfactor=0.81012
New "Load.625350100" phases=1 kV=0.24 bus1=g2000wm3200_n283819_sec_3.3 xfkVA=3.5501823 pf=0.98 status=variable model=4 CVRwatts=0.8 CVRvars=3 conn=wye Vminpu=0.7 yearly=LS_PhaseC allocationfactor=0.81012
New "Load.693350100" phases=1 kV=0.24 bus1=g2000wm3200_n283819_sec_4.3 xfkVA=3.22501545 pf=0.98 status=variable model=4 CVRwatts=0.8 CVRvars=3 conn=wye Vminpu=0.7 yearly=LS_PhaseC allocationfactor=0.81012
New "Load.187350100" phases=1 kV=0.24 bus1=g2000wm6400_n283824_sec_1.3 xfkVA=2.84654257 pf=0.98 status=variable model=4 CVRwatts=0.8 CVRvars=3 conn=wye Vminpu=0.7 yearly=LS_PhaseC allocationfactor=0.81012
New "Load.188350100" phases=1 kV=0.24 bus1=g2000wm6400_n283824_sec_2.3 xfkVA=5.52783641 pf=0.98 status=variable model=4 CVRwatts=0.8 CVRvars=3 conn=wye Vminpu=0.7 yearly=LS_PhaseC allocationfactor=0.81012
New "Load.189350100" phases=1 kV=0.24 bus1=g2000wm6400_n283824_sec_3.3 xfkVA=3.00646069 pf=0.98 status=variable model=4 CVRwatts=0.8 CVRvars=3 conn=wye Vminpu=0.7 yearly=LS_PhaseC allocationfactor=0.81012
New "Load.608350100" phases=1 kV=0.24 bus1=g2000wm6400_n283824_sec_4.3 xfkVA=5.6558542 pf=0.98 status=variable model=4 CVRwatts=0.8 CVRvars=3 conn=wye Vminpu=0.7 yearly=LS_PhaseC allocationfactor=0.81012
New "Load.624350100" phases=1 kV=0.24 bus1=g2000wm6400_n283824_sec_5.3 xfkVA=2.91450777 pf=0.98 status=variable model=4 CVRwatts=0.8 CVRvars=3 conn=wye Vminpu=0.7 yearly=LS_PhaseC allocationfactor=0.81012
New "Load.6350100" phases=1 kV=0.24 bus1=g2000wn0100_n283840_sec_1.2 xfkVA=8.5342971 pf=0.98 status=variable model=4 CVRwatts=0.8 CVRvars=3 conn=wye Vminpu=0.7 yearly=LS_PhaseB allocationfactor=1.6463
New "Load.7350100" phases=1 kV=0.24 bus1=g2000wn0100_n283840_sec_2.2 xfkVA=3.49954156 pf=0.98 status=variable model=4 CVRwatts=0.8 CVRvars=3 conn=wye Vminpu=0.7 yearly=LS_PhaseB allocationfactor=1.6463
New "Load.381342160" phases=1 kV=0.24 bus1=g2000wn3300_n283848_sec_1.2 xfkVA=3.50145725 pf=0.98 status=variable model=4 CVRwatts=0.8 CVRvars=3 conn=wye Vminpu=0.7 yearly=LS_PhaseB allocationfactor=1.6463
New "Load.8350100" phases=1 kV=0.24 bus1=g2000wn3300_n283848_sec_2.2 xfkVA=7.46284568 pf=0.98 status=variable model=4 CVRwatts=0.8 CVRvars=3 conn=wye Vminpu=0.7 yearly=LS_PhaseB allocationfactor=1.6463
New "Load.9350100" phases=1 kV=0.24 bus1=g2000wn3300_n283848_sec_3.2 xfkVA=5.41056312 pf=0.98 status=variable model=4 CVRwatts=0.8 CVRvars=3 conn=wye Vminpu=0.7 yearly=LS_PhaseB allocationfactor=1.6463
New "Load.2450100" phases=1 kV=0.24 bus1=g2000xe9500_n283544_sec_1.3 xfkVA=3.52352928 pf=0.98 status=variable model=4 CVRwatts=0.8 CVRvars=3 conn=wye Vminpu=0.7 yearly=LS_PhaseC allocationfactor=0.81012
New "Load.820350100" phases=1 kV=0.24 bus1=g2000xe9500_n283544_sec_2.3 xfkVA=3.01591039 pf=0.98 status=variable model=4 CVRwatts=0.8 CVRvars=3 conn=wye Vminpu=0.7 yearly=LS_PhaseC allocationfactor=0.81012
New "Load.902350100" phases=1 kV=0.24 bus1=g2000xe9500_n283544_sec_3.3 xfkVA=3.24367257 pf=0.98 status=variable model=4 CVRwatts=0.8 CVRvars=3 conn=wye Vminpu=0.7 yearly=LS_PhaseC allocationfactor=0.81012
New "Load.932350100" phases=1 kV=0.24 bus1=g2000xe9500_n283544_sec_4.3 xfkVA=2.04428665 pf=0.98 status=variable model=4 CVRwatts=0.8 CVRvars=3 conn=wye Vminpu=0.7 yearly=LS_PhaseC allocationfactor=0.81012
New "Load.949350100" phases=1 kV=0.24 bus1=g2000xe9500_n283544_sec_5.3 xfkVA=5.34053837 pf=0.98 status=variable model=4 CVRwatts=0.8 CVRvars=3 conn=wye Vminpu=0.7 yearly=LS_PhaseC allocationfactor=0.81012
New "Load.955350100" phases=1 kV=0.24 bus1=g2000xe9500_n283544_sec_6.3 xfkVA=0.35715047 pf=0.98 status=variable model=4 CVRwatts=0.8 CVRvars=3 conn=wye Vminpu=0.7 yearly=LS_PhaseC allocationfactor=0.81012
New "Load.961350100" phases=1 kV=0.24 bus1=g2000xe9500_n283544_sec_7.3 xfkVA=5.92060501 pf=0.98 status=variable model=4 CVRwatts=0.8 CVRvars=3 conn=wye Vminpu=0.7 yearly=LS_PhaseC allocationfactor=0.81012
New "Load.963350100" phases=1 kV=0.24 bus1=g2000xe9500_n283544_sec_8.3 xfkVA=5.903644 pf=0.98 status=variable model=4 CVRwatts=0.8 CVRvars=3 conn=wye Vminpu=0.7 yearly=LS_PhaseC allocationfactor=0.81012
New "Load.790350100" phases=1 kV=0.24 bus1=g2000xf7700_n283582_sec_1.3 xfkVA=3.47167704 pf=0.98 status=variable model=4 CVRwatts=0.8 CVRvars=3 conn=wye Vminpu=0.7 yearly=LS_PhaseC allocationfactor=0.81012
New "Load.899350100" phases=1 kV=0.24 bus1=g2000xf7700_n283582_sec_2.3 xfkVA=4.33578008 pf=0.98 status=variable model=4 CVRwatts=0.8 CVRvars=3 conn=wye Vminpu=0.7 yearly=LS_PhaseC allocationfactor=0.81012
New "Load.903350100" phases=1 kV=0.24 bus1=g2000xf7700_n283582_sec_3.3 xfkVA=2.31590516 pf=0.98 status=variable model=4 CVRwatts=0.8 CVRvars=3 conn=wye Vminpu=0.7 yearly=LS_PhaseC allocationfactor=0.81012
New "Load.952350100" phases=1 kV=0.24 bus1=g2000xf7700_n283582_sec_4.3 xfkVA=5.50409099 pf=0.98 status=variable model=4 CVRwatts=0.8 CVRvars=3 conn=wye Vminpu=0.7 yearly=LS_PhaseC allocationfactor=0.81012
New "Load.30450100" phases=1 kV=0.24 bus1=g2000xg5800_n283612_sec_1.3 xfkVA=2.81780728 pf=0.98 status=variable model=4 CVRwatts=0.8 CVRvars=3 conn=wye Vminpu=0.7 yearly=LS_PhaseC allocationfactor=0.81012
New "Load.668350100" phases=1 kV=0.24 bus1=g2000xg5800_n283612_sec_2.3 xfkVA=4.17836067 pf=0.98 status=variable model=4 CVRwatts=0.8 CVRvars=3 conn=wye Vminpu=0.7 yearly=LS_PhaseC allocationfactor=0.81012
New "Load.669350100" phases=1 kV=0.24 bus1=g2000xg5800_n283612_sec_3.3 xfkVA=5.49618595 pf=0.98 status=variable model=4 CVRwatts=0.8 CVRvars=3 conn=wye Vminpu=0.7 yearly=LS_PhaseC allocationfactor=0.81012
New "Load.904350100" phases=1 kV=0.24 bus1=g2000xg5800_n283612_sec_4.3 xfkVA=2.59517127 pf=0.98 status=variable model=4 CVRwatts=0.8 CVRvars=3 conn=wye Vminpu=0.7 yearly=LS_PhaseC allocationfactor=0.81012
New "Load.988250100" phases=1 kV=0.24 bus1=g2000xh0500_n283607_sec_1.3 xfkVA=3.27207469 pf=0.98 status=variable model=4 CVRwatts=0.8 CVRvars=3 conn=wye Vminpu=0.7 yearly=LS_PhaseC allocationfactor=0.81012
New "Load.307450100" phases=1 kV=0.24 bus1=g2000xh4800_n283608_sec_1.2 xfkVA=0.84766498 pf=0.98 status=variable model=4 CVRwatts=0.8 CVRvars=3 conn=wye Vminpu=0.7 yearly=LS_PhaseB allocationfactor=1.6463
New "Load.984250100" phases=1 kV=0.24 bus1=g2000xh4800_n283608_sec_2.2 xfkVA=1.13341968 pf=0.98 status=variable model=4 CVRwatts=0.8 CVRvars=3 conn=wye Vminpu=0.7 yearly=LS_PhaseB allocationfactor=1.6463
New "Load.985250100" phases=1 kV=0.24 bus1=g2000xh4800_n283608_sec_3.2 xfkVA=5.63786341 pf=0.98 status=variable model=4 CVRwatts=0.8 CVRvars=3 conn=wye Vminpu=0.7 yearly=LS_PhaseB allocationfactor=1.6463
New "Load.989250100" phases=1 kV=0.24 bus1=g2000xh4800_n283608_sec_4.2 xfkVA=3.23616126 pf=0.98 status=variable model=4 CVRwatts=0.8 CVRvars=3 conn=wye Vminpu=0.7 yearly=LS_PhaseB allocationfactor=1.6463
New "Load.990250100" phases=1 kV=0.24 bus1=g2000xh4800_n283608_sec_5.2 xfkVA=3.92873848 pf=0.98 status=variable model=4 CVRwatts=0.8 CVRvars=3 conn=wye Vminpu=0.7 yearly=LS_PhaseB allocationfactor=1.6463
New "Load.158450100" phases=1 kV=0.24 bus1=g2000xh7500_n283636_sec_1.3 xfkVA=3.05168753 pf=0.98 status=variable model=4 CVRwatts=0.8 CVRvars=3 conn=wye Vminpu=0.7 yearly=LS_PhaseC allocationfactor=0.81012
New "Load.159450100" phases=1 kV=0.24 bus1=g2000xh7500_n283636_sec_2.3 xfkVA=5.58838874 pf=0.98 status=variable model=4 CVRwatts=0.8 CVRvars=3 conn=wye Vminpu=0.7 yearly=LS_PhaseC allocationfactor=0.81012
New "Load.970350100" phases=1 kV=0.24 bus1=g2000xh7500_n283636_sec_3.3 xfkVA=2.79756764 pf=0.98 status=variable model=4 CVRwatts=0.8 CVRvars=3 conn=wye Vminpu=0.7 yearly=LS_PhaseC allocationfactor=0.81012
New "Load.991250100" phases=1 kV=0.24 bus1=g2000xj7800_n283732_sec_1.2 xfkVA=4.14687679 pf=0.98 status=variable model=4 CVRwatts=0.8 CVRvars=3 conn=wye Vminpu=0.7 yearly=LS_PhaseB allocationfactor=1.6463
New "Load.992250100" phases=1 kV=0.24 bus1=g2000xj7800_n283732_sec_2.2 xfkVA=2.91559812 pf=0.98 status=variable model=4 CVRwatts=0.8 CVRvars=3 conn=wye Vminpu=0.7 yearly=LS_PhaseB allocationfactor=1.6463
New "Load.544350100" phases=1 kV=0.24 bus1=g2000xj9800_n283726_sec_1.2 xfkVA=8.25777202 pf=0.98 status=variable model=4 CVRwatts=0.8 CVRvars=3 conn=wye Vminpu=0.7 yearly=LS_PhaseB allocationfactor=1.6463
New "Load.695802622" phases=1 kV=0.24 bus1=g2000xj9800_n283726_sec_2.2 xfkVA=1.39653497 pf=0.98 status=variable model=4 CVRwatts=0.8 CVRvars=3 conn=wye Vminpu=0.7 yearly=LS_PhaseB allocationfactor=1.6463
New "Load.174350100" phases=1 kV=0.24 bus1=g2000xk5800_n283764_sec_1.3 xfkVA=1.98798215 pf=0.98 status=variable model=4 CVRwatts=0.8 CVRvars=3 conn=wye Vminpu=0.7 yearly=LS_PhaseC allocationfactor=0.81012
New "Load.178350100" phases=1 kV=0.24 bus1=g2000xk5800_n283764_sec_2.3 xfkVA=3.53968767 pf=0.98 status=variable model=4 CVRwatts=0.8 CVRvars=3 conn=wye Vminpu=0.7 yearly=LS_PhaseC allocationfactor=0.81012
New "Load.193875850" phases=1 kV=0.24 bus1=g2000xk5800_n283764_sec_3.3 xfkVA=1.24746574 pf=0.98 status=variable model=4 CVRwatts=0.8 CVRvars=3 conn=wye Vminpu=0.7 yearly=LS_PhaseC allocationfactor=0.81012
New "Load.995250100" phases=1 kV=0.24 bus1=g2000xk5800_n283764_sec_4.3 xfkVA=5.99992803 pf=0.98 status=variable model=4 CVRwatts=0.8 CVRvars=3 conn=wye Vminpu=0.7 yearly=LS_PhaseC allocationfactor=0.81012
New "Load.179350100" phases=1 kV=0.24 bus1=g2000xl0100_n283777_sec_1.1 xfkVA=2.81330958 pf=0.98 status=variable model=4 CVRwatts=0.8 CVRvars=3 conn=wye Vminpu=0.7 yearly=LS_PhaseA allocationfactor=1.1102
New "Load.238350100" phases=1 kV=0.24 bus1=g2000xl0800_n283812_sec_1.1 xfkVA=2.47373344 pf=0.98 status=variable model=4 CVRwatts=0.8 CVRvars=3 conn=wye Vminpu=0.7 yearly=LS_PhaseA allocationfactor=1.1102
New "Load.239350100" phases=1 kV=0.24 bus1=g2000xl0800_n283812_sec_2.1 xfkVA=4.52243451 pf=0.98 status=variable model=4 CVRwatts=0.8 CVRvars=3 conn=wye Vminpu=0.7 yearly=LS_PhaseA allocationfactor=1.1102
...