Examples/ADiakoptics/ckt24/Torn_Circuit/Transformer.DSS
New "Transformer.subxfmr" phases=3 windings=2 XHL=10.63 buses=[sourcebus, subxfmr_lsb, ] conns=[delta, wye, ] kVs=[230, 34.5, ] kVAs=[45000, 45000, ] taps=[1, 1.0125, ] wdg=1 %R=0.12 RdcOhms=1.199067 wdg=2 %R=0.12 RdcOhms=0.008993 MinTap=0.9 MaxTap=1.1 sub=yes %noloadloss=0.18 %Rs=[0.12, 0.12, ] emerghkVA=75000
New "Transformer.step_05410_g2100ci3100" phases=1 buses=[n1386727.3, n1386727_lo.3, ] conns=[wye, wye, ] kVs=[19.92, 7.62, ] kVAs=[1000, 1000, ] taps=[1, 1, ] wdg=1 %R=0.4075 RdcOhms=1.374438 wdg=2 %R=0.4075 RdcOhms=0.2011206 XHL=3.72 %Rs=[0.4075, 0.4075, ] %noloadloss=0.0424 sub=no
New "Transformer.step_05410_g2100ci5100" phases=1 buses=[n1386726.3, n1386726_lo.3, ] conns=[wye, wye, ] kVs=[19.92, 7.62, ] kVAs=[1000, 1000, ] taps=[1, 1, ] wdg=1 %R=0.4075 RdcOhms=1.374438 wdg=2 %R=0.4075 RdcOhms=0.2011206 XHL=3.72 %Rs=[0.4075, 0.4075, ] %noloadloss=0.0424 sub=no
New "Transformer.05410_g2000ff4400" phases=1 buses=[n283602.1, g2000ff4400_n283602_sec.1, ] conns=[wye, wye, ] kVs=[19.91858, 0.24, ] kVAs=[10, 10, ] taps=[1, 1, ] wdg=1 %R=0.7 RdcOhms=236.0663 wdg=2 %R=0.7 RdcOhms=0.034272 %imag=0.5 %loadloss=1.4 %noloadloss=0.325 XHL=1.575
New "Transformer.05410_g2000sk5500" phases=1 buses=[n274137.2, g2000sk5500_n274137_sec.2, ] conns=[wye, wye, ] kVs=[19.91858, 0.24, ] kVAs=[50, 50, ] taps=[1, 1, ] wdg=1 %R=0.4385 RdcOhms=29.57573 wdg=2 %R=0.4385 RdcOhms=0.004293792 %imag=0.5 %loadloss=0.877 %noloadloss=0.181 XHL=2.025
New "Transformer.05410_g2000sk7800" phases=1 buses=[n274150.2, g2000sk7800_n274150_sec.2, ] conns=[wye, wye, ] kVs=[19.91858, 0.24, ] kVAs=[50, 50, ] taps=[1, 1, ] wdg=1 %R=0.4385 RdcOhms=29.57573 wdg=2 %R=0.4385 RdcOhms=0.004293792 %imag=0.5 %loadloss=0.877 %noloadloss=0.181 XHL=2.025
New "Transformer.05410_g2000tj2700" phases=1 buses=[n274103.3, g2000tj2700_n274103_sec.3, ] conns=[wye, wye, ] kVs=[19.91858, 0.24, ] kVAs=[50, 50, ] taps=[1, 1, ] wdg=1 %R=0.4385 RdcOhms=29.57573 wdg=2 %R=0.4385 RdcOhms=0.004293792 %imag=0.5 %loadloss=0.877 %noloadloss=0.181 XHL=2.025
New "Transformer.05410_g2000tl1200" phases=1 buses=[n283789.2, g2000tl1200_n283789_sec.2, ] conns=[wye, wye, ] kVs=[19.91858, 0.24, ] kVAs=[100, 100, ] taps=[1, 1, ] wdg=1 %R=0.67875 RdcOhms=22.89 wdg=2 %R=0.67875 RdcOhms=0.00332316 %imag=0.5 %loadloss=1.3575 %noloadloss=0.131 XHL=3.29
New "Transformer.05410_g2000tl5600" phases=1 buses=[n283806.2, g2000tl5600_n283806_sec.2, ] conns=[wye, wye, ] kVs=[19.91858, 0.24, ] kVAs=[50, 50, ] taps=[1, 1, ] wdg=1 %R=0.4385 RdcOhms=29.57573 wdg=2 %R=0.4385 RdcOhms=0.004293792 %imag=0.5 %loadloss=0.877 %noloadloss=0.181 XHL=2.025
New "Transformer.05410_g2000uh9400" phases=1 buses=[n283633.3, g2000uh9400_n283633_sec.3, ] conns=[wye, wye, ] kVs=[19.91858, 0.24, ] kVAs=[25, 25, ] taps=[1, 1, ] wdg=1 %R=0.633 RdcOhms=85.38854 wdg=2 %R=0.633 RdcOhms=0.01239667 %imag=0.5 %loadloss=1.266 %noloadloss=0.248 XHL=1.835
New "Transformer.05410_g2000uh9800" phases=1 buses=[n283647.3, g2000uh9800_n283647_sec.3, ] conns=[wye, wye, ] kVs=[19.91858, 0.24, ] kVAs=[50, 50, ] taps=[1, 1, ] wdg=1 %R=0.4385 RdcOhms=29.57573 wdg=2 %R=0.4385 RdcOhms=0.004293792 %imag=0.5 %loadloss=0.877 %noloadloss=0.181 XHL=2.025
New "Transformer.05410_g2000ui3100" phases=1 buses=[n283702.3, g2000ui3100_n283702_sec.3, ] conns=[wye, wye, ] kVs=[19.91858, 0.24, ] kVAs=[50, 50, ] taps=[1, 1, ] wdg=1 %R=0.4385 RdcOhms=29.57573 wdg=2 %R=0.4385 RdcOhms=0.004293792 %imag=0.5 %loadloss=0.877 %noloadloss=0.181 XHL=2.025
New "Transformer.05410_g2000ui5400" phases=1 buses=[n283699.3, g2000ui5400_n283699_sec.3, ] conns=[wye, wye, ] kVs=[19.91858, 0.24, ] kVAs=[100, 100, ] taps=[1, 1, ] wdg=1 %R=0.67875 RdcOhms=22.89 wdg=2 %R=0.67875 RdcOhms=0.00332316 %imag=0.5 %loadloss=1.3575 %noloadloss=0.131 XHL=3.29
New "Transformer.05410_g2000ui6400" phases=1 buses=[n283679.3, g2000ui6400_n283679_sec.3, ] conns=[wye, wye, ] kVs=[19.91858, 0.24, ] kVAs=[50, 50, ] taps=[1, 1, ] wdg=1 %R=0.4385 RdcOhms=29.57573 wdg=2 %R=0.4385 RdcOhms=0.004293792 %imag=0.5 %loadloss=0.877 %noloadloss=0.181 XHL=2.025
New "Transformer.05410_g2000uj0800" phases=1 buses=[n283722.3, g2000uj0800_n283722_sec.3, ] conns=[wye, wye, ] kVs=[19.91858, 0.24, ] kVAs=[50, 50, ] taps=[1, 1, ] wdg=1 %R=0.4385 RdcOhms=29.57573 wdg=2 %R=0.4385 RdcOhms=0.004293792 %imag=0.5 %loadloss=0.877 %noloadloss=0.181 XHL=2.025
New "Transformer.05410_g2000uj3600" phases=1 buses=[n283731.2, g2000uj3600_n283731_sec.2, ] conns=[wye, wye, ] kVs=[19.91858, 0.24, ] kVAs=[100, 100, ] taps=[1, 1, ] wdg=1 %R=0.67875 RdcOhms=22.89 wdg=2 %R=0.67875 RdcOhms=0.00332316 %imag=0.5 %loadloss=1.3575 %noloadloss=0.131 XHL=3.29
New "Transformer.05410_g2000uj6500" phases=1 buses=[n283747.2, g2000uj6500_n283747_sec.2, ] conns=[wye, wye, ] kVs=[19.91858, 0.24, ] kVAs=[100, 100, ] taps=[1, 1, ] wdg=1 %R=0.67875 RdcOhms=22.89 wdg=2 %R=0.67875 RdcOhms=0.00332316 %imag=0.5 %loadloss=1.3575 %noloadloss=0.131 XHL=3.29
...